/*--------------------------------*- C++ -*----------------------------------*\
| =========                 |                                                 |
| \\      /  F ield         | OpenFOAM: The Open Source CFD Toolbox           |
|  \\    /   O peration     | Version:  4.0                                   |
|   \\  /    A nd           | Web:      www.OpenFOAM.org                      |
|    \\/     M anipulation  |                                                 |
\*---------------------------------------------------------------------------*/
FoamFile
{
    version     2.0;
    format      ascii;
    class       dictionary;
    location    "system";
    object      controlDict;
}
// * * * * * * * * * * * * * * * * * * * * * * * * * * * * * * * * * * * * * //
lfm
{
	commType		1;
	haloCommType		1;
	doublePrecision		true;

	post
	{
		haveProbes	false;
		haveSampling	false;
		haveAverage	false;
		haveForces	true;
		haveResiduals	true;
		saveForcesStep	1;
		saveRank        true;
		printInfoFreq	10;
		saveResiduals	false;
		saveBlendFactor	false;
	}

	maxCFL			1;
}

startFrom     	startTime;

startTime       0.0; 

stopAt          endTime;

endTime         2.4e3;

deltaT          2.0e-3;

writeControl    timeStep;

writeInterval   100000;

purgeWrite      5;

writeFormat     ascii;

writePrecision  12;

writeCompression off;

timeFormat      general;

timePrecision   12;

runTimeModifiable true;

adjustTimeStep  no;

maxCo         1.0;

maxDeltaT       1.;


pressArtDiff    true; //activate artificial diffusion on pressure
convArtDiff     false; //activate artificial diffusion on pressure

ducLevelPress       1.00;
ducLevelConv        1.00;
epsilon             4.0e-2;
kp                  0.25;//25;
ku                  0.75;//75;
                                 





// ************************************************************************* //
