/*--------------------------------*- C++ -*----------------------------------*\
| =========                 |                                                 |
| \\      /  F ield         | OpenFOAM: The Open Source CFD Toolbox           |
|  \\    /   O peration     | Version:  4.0                                   |
|   \\  /    A nd           | Web:      www.OpenFOAM.org                      |
|    \\/     M anipulation  |                                                 |
\*---------------------------------------------------------------------------*/
FoamFile
{
    version     2.0;
    format      ascii;
    class       dictionary;
    location    "system";
    object      sample;
}
// * * * * * * * * * * * * * * * * * * * * * * * * * * * * * * * * * * * * * //

type sets;
libs ("libsampling.so");

interpolationScheme cellPointFace;

setFormat       raw;

sets
(
    points2
    {
         type    cloud;
        axis    xyz;
        points  (

(	-56	0	0	)
(	-55.9947923449	0.8818414565	0	)
(	-55.9791680887	1.7636282058	0	)
(	-55.9531233616	2.6453053915	0	)
(	-55.9166517238	3.5268178593	0	)
(	-55.8697441792	4.4081100087	0	)
(	-55.8123891964	5.2891256447	0	)
(	-55.7445727339	6.1698078311	0	)
(	-55.6662782718	7.0500987443	0	)
(	-55.5774868492	7.9299395282	0	)
(	-55.4781771065	8.8092701508	0	)
(	-55.3683253342	9.6880292625	0	)
(	-55.2479055262	10.5661540554	0	)
(	-55.1168894396	11.4435801254	0	)
(	-54.975246659	12.320241336	0	)
(	-54.8229446666	13.1960696842	0	)
(	-54.659948917	14.0709951697	0	)
(	-54.4862229181	14.944945666	0	)
(	-54.3017283158	15.8178467946	0	)
(	-54.1064249848	16.6896218023	0	)
(	-53.9002711234	17.5601914419	0	)
(	-53.6832233533	18.4294738555	0	)
(	-53.4552368244	19.2973844626	0	)
(	-53.2162653237	20.1638358505	0	)
(	-52.9662613884	21.0287376697	0	)
(	-52.7051764238	21.8919965324	0	)
(	-52.4329608249	22.753515916	0	)
(	-52.1495641023	23.6131960701	0	)
(	-51.8549350114	24.4709339283	0	)
(	-51.5490216859	25.326623025	0	)
(	-51.2317717746	26.1801534156	0	)
(	-50.9031325815	27.0314116034	0	)
(	-50.5630512089	27.8802804693	0	)
(	-50.2114747041	28.7266392086	0	)
(	-49.8483502087	29.5703632713	0	)
(	-49.4736251105	30.4113243088	0	)
(	-49.087247198	31.2493901253	0	)
(	-48.6891648174	32.0844246348	0	)
(	-48.2793270316	32.9162878239	0	)
(	-47.8576837812	33.7448357201	0	)
(	-47.4241860476	34.5699203651	0	)
(	-46.9787860173	35.3913897953	0	)
(	-46.5214372478	36.2090880267	0	)
(	-46.0520948345	37.0228550464	0	)
(	-45.5707155795	37.8325268098	0	)
(	-45.07725816	38.6379352442	0	)
(	-44.571683298	39.4389082575	0	)
(	-44.0539539307	40.235269754	0	)
(	-43.5240353805	41.0268396551	0	)
(	-42.9818955252	41.8134339274	0	)
(	-42.4275049687	42.5948646157	0	)
(	-41.8608372102	43.3709398828	0	)
(	-41.2818688138	44.141464055	0	)
(	-40.6905795766	44.9062376739	0	)
(	-40.0869526965	45.6650575541	0	)
(	-39.4709749382	46.4177168472	0	)
(	-38.8426367982	47.1640051114	0	)
(	-38.2019326678	47.9037083875	0	)
(	-37.5488609952	48.6366092805	0	)
(	-36.8834244443	49.3624870471	0	)
(	-36.2056300525	50.0811176894	0	)
(	-35.5154893855	50.7922740538	0	)
(	-34.8130186895	51.4957259361	0	)
(	-34.0982390411	52.1912401918	0	)
(	-33.3711764938	52.8785808524	0	)
(	-32.6318622213	53.5575092465	0	)
(	-31.8803326579	54.2277841272	0	)
(	-31.1166296352	54.8891618038	0	)
(	-30.340800515	55.5413962789	0	)
(	-29.5528983183	56.1842393916	0	)
(	-28.7529818504	56.8174409637	0	)
(	-27.9411158221	57.4407489523	0	)
(	-27.1173709658	58.0539096067	0	)
(	-26.2818241475	58.6566676294	0	)
(	-25.4345584746	59.2487663418	0	)
(	-24.5756633977	59.8299478544	0	)
(	-23.7052348085	60.3999532407	0	)
(	-22.8233751319	60.9585227155	0	)
(	-21.9301934136	61.5053958165	0	)
(	-21.025805401	62.0403115901	0	)
(	-20.11033362	62.5630087805	0	)
(	-19.1839074455	63.0732260215	0	)
(	-18.2466631656	63.5707020327	0	)
(	-17.2987440411	64.0551758175	0	)
(	-16.3403003583	64.5263868645	0	)
(	-15.3714894754	64.9840753511	0	)
(	-14.3924758635	65.4279823502	0	)
(	-13.4034311409	65.8578500381	0	)
(	-12.4045341012	66.2734219054	0	)
(	-11.3959707345	66.6744429691	0	)
(	-10.3779342431	67.0606599865	0	)
(	-9.3506250495	67.4318216707	0	)
(	-8.3142507983	67.787678907	0	)
(	-7.2690263519	68.1279849705	0	)
(	-6.2151737787	68.4524957445	0	)
(	-5.1529223346	68.7609699394	0	)
(	-4.0825084385	69.0531693124	0	)
(	-3.0041756399	69.3288588862	0	)
(	-1.9181745808	69.5878071693	0	)
(	-0.8247629495	69.8297863747	0	)
(	0.2757945711	70.0545726389	0	)
(	1.3832263634	70.2619462398	0	)
(	2.4972539407	70.4516918138	0	)
(	3.6175920201	70.6235985717	0	)
(	4.7439486026	70.7774605138	0	)
(	5.8760250592	70.9130766424	0	)
(	7.0135162243	71.0302511739	0	)
(	8.1561104954	71.1287937474	0	)
(	9.3034899399	71.2085196325	0	)
(	10.4553304084	71.2692499337	0	)
(	11.6113016537	71.3108117927	0	)
(	12.7710674579	71.3330385882	0	)
(	13.9342857642	71.3357701313	0	)
(	15.1006088158	71.3188528597	0	)
(	16.2696833016	71.2821400266	0	)
(	17.4411505066	71.2254918872	0	)
(	18.6146464695	71.1487758811	0	)
(	19.7898021458	71.0518668102	0	)
(	20.9662435767	70.9346470129	0	)
(	22.1435920635	70.7970065341	0	)
(	23.3214643483	70.6388432901	0	)
(	24.4994727991	70.4600632289	0	)
(	25.6772256006	70.260580486	0	)
(	26.8543269509	70.0403175347	0	)
(	28.0303772619	69.7992053312	0	)
(	29.2049733655	69.5371834545	0	)
(	30.3777087243	69.2542002406	0	)
(	31.5481736464	68.9502129107	0	)
(	32.7159555052	68.6251876945	0	)
(	33.880638963	68.2790999461	0	)
(	35.0418061987	67.911934255	0	)
(	36.1990371394	67.5236845499	0	)
(	37.3519096956	67.1143541972	0	)
(	38.5	66.6839560914	0	)
(	39.6428826493	66.2325127406	0	)
(	40.7801309493	65.7600563442	0	)
(	41.911317163	65.2666288635	0	)
(	43.0360127608	64.7522820868	0	)
(	44.153788674	64.2170776858	0	)
(	45.26421555	63.661087266	0	)
(	46.3668640095	63.0843924094	0	)
(	47.4613049063	62.4870847102	0	)
(	48.5471095873	61.8692658031	0	)
(	49.6238501557	61.2310473839	0	)
(	50.6910997336	60.5725512235	0	)
(	51.7484327271	59.8939091735	0	)
(	52.7954250913	59.1952631646	0	)
(	53.8316545955	58.4767651982	0	)
(	54.8567010899	57.7385773287	0	)
(	55.8701467712	56.9808716405	0	)
(	56.8715764486	56.2038302151	0	)
(	57.8605778092	55.4076450926	0	)
(	58.8367416832	54.5925182242	0	)
(	59.7996623075	53.7586614178	0	)
(	60.7489375891	52.9062962758	0	)
(	61.6841693665	52.0356541256	0	)
(	62.60496367	51.1469759422	0	)
(	63.5109309801	50.240512264	0	)
(	64.4016864839	49.3165231001	0	)
(	65.2768503296	48.3752778314	0	)
(	66.136047878	47.4170551038	0	)
(	66.9789099521	46.4421427141	0	)
(	67.8050730832	45.4508374888	0	)
(	68.6141797545	44.4434451561	0	)
(	69.4058786408	43.4202802104	0	)
(	70.1798248454	42.3816657705	0	)
(	70.935680133	41.3279334304	0	)
(	71.6731131582	40.2594231034	0	)
(	72.3917996913	39.1764828604	0	)
(	73.0914228379	38.0794687609	0	)
(	73.7716732559	36.9687446776	0	)
(	74.4322493662	35.8446821155	0	)
(	75.0728575599	34.7076600244	0	)
(	75.6932123996	33.5580646054	0	)
(	76.2930368156	32.3962891117	0	)
(	76.8720622972	31.222733644	0	)
(	77.4300290776	30.0378049401	0	)
(	77.9666863141	28.8419161593	0	)
(	78.4817922612	27.6354866612	0	)
(	78.9751144389	26.4189417806	0	)
(	79.4464297942	25.1927125962	0	)
(	79.8955248558	23.957235696	0	)
(	80.3221958835	22.7129529371	0	)
(	80.7262490099	21.4603112018	0	)
(	81.1075003758	20.1997621499	0	)
(	81.4657762593	18.9317619665	0	)
(	81.8009131967	17.6567711066	0	)
(	82.1127580975	16.3752540361	0	)
(	82.4011683518	15.0876789693	0	)
(	82.6660119301	13.7945176041	0	)
(	82.9071674763	12.4962448532	0	)
(	83.1245243929	11.1933385739	0	)
(	83.3179829189	9.8862792947	0	)
(	83.4874542	8.57554994	0	)
(	83.6328603512	7.261635553	0	)
(	83.7541345116	5.9450230162	0	)
(	83.8512208916	4.6262007719	0	)
(	83.9240748121	3.3056585392	0	)
(	83.9726627363	1.9838870324	0	)
(	83.9969622931	0.6613776765	0	)
(	83.9969622931	-0.6613776765	0	)
(	83.9726627363	-1.9838870324	0	)
(	83.9240748121	-3.3056585392	0	)
(	83.8512208916	-4.6262007719	0	)
(	83.7541345116	-5.9450230162	0	)
(	83.6328603512	-7.261635553	0	)
(	83.4874542	-8.57554994	0	)
(	83.3179829189	-9.8862792947	0	)
(	83.1245243929	-11.1933385739	0	)
(	82.9071674763	-12.4962448532	0	)
(	82.6660119301	-13.7945176041	0	)
(	82.4011683518	-15.0876789693	0	)
(	82.1127580975	-16.3752540361	0	)
(	81.8009131967	-17.6567711066	0	)
(	81.4657762593	-18.9317619665	0	)
(	81.1075003758	-20.1997621499	0	)
(	80.7262490099	-21.4603112018	0	)
(	80.3221958835	-22.7129529371	0	)
(	79.8955248558	-23.957235696	0	)
(	79.4464297942	-25.1927125962	0	)
(	78.9751144389	-26.4189417806	0	)
(	78.4817922612	-27.6354866612	0	)
(	77.9666863141	-28.8419161593	0	)
(	77.4300290776	-30.0378049401	0	)
(	76.8720622972	-31.222733644	0	)
(	76.2930368156	-32.3962891117	0	)
(	75.6932123996	-33.5580646054	0	)
(	75.0728575599	-34.7076600244	0	)
(	74.4322493662	-35.8446821155	0	)
(	73.7716732559	-36.9687446776	0	)
(	73.0914228379	-38.0794687609	0	)
(	72.3917996913	-39.1764828604	0	)
(	71.6731131582	-40.2594231034	0	)
(	70.935680133	-41.3279334304	0	)
(	70.1798248454	-42.3816657705	0	)
(	69.4058786408	-43.4202802104	0	)
(	68.6141797545	-44.4434451561	0	)
(	67.8050730832	-45.4508374888	0	)
(	66.9789099521	-46.4421427141	0	)
(	66.136047878	-47.4170551038	0	)
(	65.2768503296	-48.3752778314	0	)
(	64.4016864839	-49.3165231001	0	)
(	63.5109309801	-50.240512264	0	)
(	62.60496367	-51.1469759422	0	)
(	61.6841693665	-52.0356541256	0	)
(	60.7489375891	-52.9062962758	0	)
(	59.7996623075	-53.7586614178	0	)
(	58.8367416832	-54.5925182242	0	)
(	57.8605778092	-55.4076450926	0	)
(	56.8715764486	-56.2038302151	0	)
(	55.8701467712	-56.9808716405	0	)
(	54.8567010899	-57.7385773287	0	)
(	53.8316545955	-58.4767651982	0	)
(	52.7954250913	-59.1952631646	0	)
(	51.7484327271	-59.8939091735	0	)
(	50.6910997336	-60.5725512235	0	)
(	49.6238501557	-61.2310473839	0	)
(	48.5471095873	-61.8692658031	0	)
(	47.4613049063	-62.4870847102	0	)
(	46.3668640095	-63.0843924094	0	)
(	45.26421555	-63.661087266	0	)
(	44.153788674	-64.2170776858	0	)
(	43.0360127608	-64.7522820868	0	)
(	41.911317163	-65.2666288635	0	)
(	40.7801309493	-65.7600563442	0	)
(	39.6428826493	-66.2325127406	0	)
(	38.5	-66.6839560914	0	)
(	37.3519096956	-67.1143541972	0	)
(	36.1990371394	-67.5236845499	0	)
(	35.0418061987	-67.911934255	0	)
(	33.880638963	-68.2790999461	0	)
(	32.7159555052	-68.6251876945	0	)
(	31.5481736464	-68.9502129107	0	)
(	30.3777087243	-69.2542002406	0	)
(	29.2049733655	-69.5371834545	0	)
(	28.0303772619	-69.7992053312	0	)
(	26.8543269509	-70.0403175347	0	)
(	25.6772256006	-70.260580486	0	)
(	24.4994727991	-70.4600632289	0	)
(	23.3214643483	-70.6388432901	0	)
(	22.1435920635	-70.7970065341	0	)
(	20.9662435767	-70.9346470129	0	)
(	19.7898021458	-71.0518668102	0	)
(	18.6146464695	-71.1487758811	0	)
(	17.4411505066	-71.2254918872	0	)
(	16.2696833016	-71.2821400266	0	)
(	15.1006088158	-71.3188528597	0	)
(	13.9342857642	-71.3357701313	0	)
(	12.7710674579	-71.3330385882	0	)
(	11.6113016537	-71.3108117927	0	)
(	10.4553304084	-71.2692499337	0	)
(	9.3034899399	-71.2085196325	0	)
(	8.1561104954	-71.1287937474	0	)
(	7.0135162243	-71.0302511739	0	)
(	5.8760250592	-70.9130766424	0	)
(	4.7439486026	-70.7774605138	0	)
(	3.6175920201	-70.6235985717	0	)
(	2.4972539407	-70.4516918138	0	)
(	1.3832263634	-70.2619462398	0	)
(	0.2757945711	-70.0545726389	0	)
(	-0.8247629495	-69.8297863747	0	)
(	-1.9181745808	-69.5878071693	0	)
(	-3.0041756399	-69.3288588862	0	)
(	-4.0825084385	-69.0531693124	0	)
(	-5.1529223346	-68.7609699394	0	)
(	-6.2151737787	-68.4524957445	0	)
(	-7.2690263519	-68.1279849705	0	)
(	-8.3142507983	-67.787678907	0	)
(	-9.3506250495	-67.4318216707	0	)
(	-10.3779342431	-67.0606599865	0	)
(	-11.3959707345	-66.6744429691	0	)
(	-12.4045341012	-66.2734219054	0	)
(	-13.4034311409	-65.8578500381	0	)
(	-14.3924758635	-65.4279823502	0	)
(	-15.3714894754	-64.9840753511	0	)
(	-16.3403003583	-64.5263868645	0	)
(	-17.2987440411	-64.0551758175	0	)
(	-18.2466631656	-63.5707020327	0	)
(	-19.1839074455	-63.0732260215	0	)
(	-20.11033362	-62.5630087805	0	)
(	-21.025805401	-62.0403115901	0	)
(	-21.9301934136	-61.5053958165	0	)
(	-22.8233751319	-60.9585227155	0	)
(	-23.7052348085	-60.3999532407	0	)
(	-24.5756633977	-59.8299478544	0	)
(	-25.4345584746	-59.2487663418	0	)
(	-26.2818241475	-58.6566676294	0	)
(	-27.1173709658	-58.0539096067	0	)
(	-27.9411158221	-57.4407489523	0	)
(	-28.7529818504	-56.8174409637	0	)
(	-29.5528983183	-56.1842393916	0	)
(	-30.340800515	-55.5413962789	0	)
(	-31.1166296352	-54.8891618038	0	)
(	-31.8803326579	-54.2277841272	0	)
(	-32.6318622213	-53.5575092465	0	)
(	-33.3711764938	-52.8785808524	0	)
(	-34.0982390411	-52.1912401918	0	)
(	-34.8130186895	-51.4957259361	0	)
(	-35.5154893855	-50.7922740538	0	)
(	-36.2056300525	-50.0811176894	0	)
(	-36.8834244443	-49.3624870471	0	)
(	-37.5488609952	-48.6366092805	0	)
(	-38.2019326678	-47.9037083875	0	)
(	-38.8426367982	-47.1640051114	0	)
(	-39.4709749382	-46.4177168472	0	)
(	-40.0869526965	-45.6650575541	0	)
(	-40.6905795766	-44.9062376739	0	)
(	-41.2818688138	-44.141464055	0	)
(	-41.8608372102	-43.3709398828	0	)
(	-42.4275049687	-42.5948646157	0	)
(	-42.9818955252	-41.8134339274	0	)
(	-43.5240353805	-41.0268396551	0	)
(	-44.0539539307	-40.235269754	0	)
(	-44.571683298	-39.4389082575	0	)
(	-45.07725816	-38.6379352442	0	)
(	-45.5707155795	-37.8325268098	0	)
(	-46.0520948345	-37.0228550464	0	)
(	-46.5214372478	-36.2090880267	0	)
(	-46.9787860173	-35.3913897953	0	)
(	-47.4241860476	-34.5699203651	0	)
(	-47.8576837812	-33.7448357201	0	)
(	-48.2793270316	-32.9162878239	0	)
(	-48.6891648174	-32.0844246348	0	)
(	-49.087247198	-31.2493901253	0	)
(	-49.4736251105	-30.4113243088	0	)
(	-49.8483502087	-29.5703632713	0	)
(	-50.2114747041	-28.7266392086	0	)
(	-50.5630512089	-27.8802804693	0	)
(	-50.9031325815	-27.0314116034	0	)
(	-51.2317717746	-26.1801534156	0	)
(	-51.5490216859	-25.326623025	0	)
(	-51.8549350114	-24.4709339283	0	)
(	-52.1495641023	-23.6131960701	0	)
(	-52.4329608249	-22.753515916	0	)
(	-52.7051764238	-21.8919965324	0	)
(	-52.9662613884	-21.0287376697	0	)
(	-53.2162653237	-20.1638358505	0	)
(	-53.4552368244	-19.2973844626	0	)
(	-53.6832233533	-18.4294738555	0	)
(	-53.9002711234	-17.5601914419	0	)
(	-54.1064249848	-16.6896218023	0	)
(	-54.3017283158	-15.8178467946	0	)
(	-54.4862229181	-14.944945666	0	)
(	-54.659948917	-14.0709951697	0	)
(	-54.8229446666	-13.1960696842	0	)
(	-54.975246659	-12.320241336	0	)
(	-55.1168894396	-11.4435801254	0	)
(	-55.2479055262	-10.5661540554	0	)
(	-55.3683253342	-9.6880292625	0	)
(	-55.4781771065	-8.8092701508	0	)
(	-55.5774868492	-7.9299395282	0	)
(	-55.6662782718	-7.0500987443	0	)
(	-55.7445727339	-6.1698078311	0	)
(	-55.8123891964	-5.2891256447	0	)
(	-55.8697441792	-4.4081100087	0	)
(	-55.9166517238	-3.5268178593	0	)
(	-55.9531233616	-2.6453053915	0	)
(	-55.9791680887	-1.7636282058	0	)
(	-55.9947923449	-0.8818414565	0	)
(	-56	-1.37160441504504E-14	0	)


                );
    }
);

fields              (  pPrime2Mean );
//axis        xyz;           // This I don't know why is needed, but needs to be defined as well?


// ************************************************************************* //
