/*--------------------------------*- C++ -*----------------------------------*\
| =========                 |                                                 |
| \\      /  F ield         | OpenFOAM: The Open Source CFD Toolbox           |
|  \\    /   O peration     | Version:  4.0                                   |
|   \\  /    A nd           | Web:      www.OpenFOAM.org                      |
|    \\/     M anipulation  |                                                 |
\*---------------------------------------------------------------------------*/
FoamFile
{
    version     2.0;
    format      ascii;
    class       dictionary;
    location    "system";
    object      sample;
}
// * * * * * * * * * * * * * * * * * * * * * * * * * * * * * * * * * * * * * //

type sets;
libs ("libsampling.so");


interpolationScheme cellPointFace;
setFormat           raw;

sets
(
    alongCircWall
    {
        type        circle;
        origin      (0    0 0);     // Origin (x, y, z) in global cartesian co-ordinates
        circleAxis  (0    0 1);     // Axis of the circle
        startPoint  (-75.0 0 0);   // Defines start point on circle (x, y, z) in global cartesian co-ordinates 
        dTheta      1;           // Sampling interval in degrees about the origin
        axis        xyz;           // This I don't know why is needed, but needs to be defined as well?
    }
);

fields              (  pPrime2Mean );
//axis        xyz;           // This I don't know why is needed, but needs to be defined as well?


// ************************************************************************* //
