/*--------------------------------*- C++ -*----------------------------------*\
| =========                 |                                                 |
| \\      /  F ield         | OpenFOAM: The Open Source CFD Toolbox           |
|  \\    /   O peration     | Version:  4.0                                   |
|   \\  /    A nd           | Web:      www.OpenFOAM.org                      |
|    \\/     M anipulation  |                                                 |
\*---------------------------------------------------------------------------*/
FoamFile
{
    version     2.0;
    format      ascii;
    class       dictionary;
    location    "system";
    object      sample;
}
// * * * * * * * * * * * * * * * * * * * * * * * * * * * * * * * * * * * * * //

type sets;
libs ("libsampling.so");

interpolationScheme cellPointFace;

setFormat       raw;

sets
(
    points
    {
         type    cloud;
        axis    xyz;
        points  (

(	-60	0	0	)
(	-59.9944203695	0.944830132	0	)
(	-59.977680095	1.8896016491	0	)
(	-59.9497750303	2.8342557766	0	)
(	-59.9106982755	3.7787334207	0	)
(	-59.860440192	4.7229750093	0	)
(	-59.7989884247	5.6669203336	0	)
(	-59.7263279291	6.6105083905	0	)
(	-59.6424410055	7.553677226	0	)
(	-59.5473073384	8.4963637802	0	)
(	-59.4409040427	9.438503733	0	)
(	-59.3232057152	10.3800313527	0	)
(	-59.1941844924	11.3208793451	0	)
(	-59.0538101139	12.2609787058	0	)
(	-58.9020499918	13.2002585743	0	)
(	-58.7388692856	14.1386460902	0	)
(	-58.5642309825	15.0760662533	0	)
(	-58.3780959837	16.012441785	0	)
(	-58.1804231955	16.9476929942	0	)
(	-57.9711696266	17.8817376453	0	)
(	-57.7502904893	18.8144908306	0	)
(	-57.5177393071	19.7458648452	0	)
(	-57.2734680262	20.6757690671	0	)
(	-57.0174271325	21.6041098398	0	)
(	-56.7495657733	22.5307903604	0	)
(	-56.4698318826	23.4557105705	0	)
(	-56.1781723124	24.3787670529	0	)
(	-55.8745329667	25.2998529322	0	)
(	-55.5588589407	26.2188577804	0	)
(	-55.2310946635	27.1356675267	0	)
(	-54.8911840443	28.0501643739	0	)
(	-54.539070623	28.9622267179	0	)
(	-54.1746977238	29.8717290743	0	)
(	-53.7980086115	30.7785420092	0	)
(	-53.4089466522	31.6825320764	0	)
(	-53.0074554755	32.5835617595	0	)
(	-52.5934791407	33.4814894199	0	)
(	-52.1669623043	34.3761692516	0	)
(	-51.727850391	35.2674512399	0	)
(	-51.2760897656	36.1551811286	0	)
(	-50.8116279082	37.0392003912	0	)
(	-50.33441359	37.9193462093	0	)
(	-49.8443970512	38.7954514572	0	)
(	-49.3415301798	39.6673446925	0	)
(	-48.8257666924	40.5348501534	0	)
(	-48.2970623143	41.3977877617	0	)
(	-47.7553749622	42.2559731331	0	)
(	-47.2006649258	43.1092175935	0	)
(	-46.6328950505	43.9573282019	0	)
(	-46.0520309199	44.8001077794	0	)
(	-45.4580410379	45.6373549454	0	)
(	-44.850897011	46.4688641602	0	)
(	-44.2305737291	47.2944257732	0	)
(	-43.5970495464	48.1138260792	0	)
(	-42.9503064606	48.9268473794	0	)
(	-42.290330291	49.7332680505	0	)
(	-41.6171108552	50.5328626193	0	)
(	-40.9306421441	51.3254018437	0	)
(	-40.2309224948	52.1106528005	0	)
(	-39.5179547617	52.888378979	0	)
(	-38.7917464848	53.6583403815	0	)
(	-38.0523100559	54.4202936291	0	)
(	-37.2996628816	55.1739920744	0	)
(	-36.5338275441	55.9191859198	0	)
(	-35.7548319576	56.6556223418	0	)
(	-34.9627095228	57.3830456213	0	)
(	-34.1574992763	58.1011972792	0	)
(	-33.3392460377	58.8098162183	0	)
(	-32.5080005518	59.5086388703	0	)
(	-31.6638196267	60.1973993481	0	)
(	-30.8067662683	60.8758296039	0	)
(	-29.9369098094	61.5436595918	0	)
(	-29.0543260348	62.2006174358	0	)
(	-28.1590973009	62.846429603	0	)
(	-27.2513126514	63.4808210805	0	)
(	-26.3310679261	64.1035155583	0	)
(	-25.3984658662	64.714235615	0	)
(	-24.4536162128	65.3127029094	0	)
(	-23.4966358003	65.8986383748	0	)
(	-22.5276486439	66.471762418	0	)
(	-21.5467860215	67.0317951219	0	)
(	-20.5541865487	67.5784564516	0	)
(	-19.5499962488	68.1114664636	0	)
(	-18.5343686155	68.6305455188	0	)
(	-17.5074646696	69.1354144977	0	)
(	-16.4694530093	69.6257950191	0	)
(	-15.4205098537	70.1014096609	0	)
(	-14.3608190795	70.5619821837	0	)
(	-13.2905722512	71.0072377558	0	)
(	-12.2099686441	71.4369031812	0	)
(	-11.1192152605	71.8507071284	0	)
(	-10.0185268387	72.2483803615	0	)
(	-8.9081258553	72.6296559718	0	)
(	-7.7882425199	72.9942696112	0	)
(	-6.6591147629	73.3419597262	0	)
(	-5.5209882157	73.6724677923	0	)
(	-4.3741161841	73.985538549	0	)
(	-3.2187596142	74.2809202352	0	)
(	-2.0551870509	74.5583648242	0	)
(	-0.8836745888	74.8176282586	0	)
(	0.2954941833	75.0584706846	0	)
(	1.4820282465	75.2806566855	0	)
(	2.6756292222	75.4839555148	0	)
(	3.8759914501	75.6681413268	0	)
(	5.0828020743	75.8329934076	0	)
(	6.2957411349	75.9782964026	0	)
(	7.5144816689	76.1038405435	0	)
(	8.7386898165	76.2094218722	0	)
(	9.9680249356	76.2948424634	0	)
(	11.2021397232	76.3599106432	0	)
(	12.4406803433	76.4044412065	0	)
(	13.6832865621	76.4282556302	0	)
(	14.9295918902	76.4311822835	0	)
(	16.1792237313	76.4130566353	0	)
(	17.4318035375	76.373721457	0	)
(	18.6869469714	76.313027022	0	)
(	19.9442640745	76.2308313012	0	)
(	21.2033594419	76.1270001538	0	)
(	22.4638324036	76.0014075138	0	)
(	23.7252772109	75.8539355723	0	)
(	24.9872832304	75.6844749537	0	)
(	26.2494351418	75.4929248881	0	)
(	27.5113131435	75.2791933779	0	)
(	28.7724931617	75.0431973586	0	)
(	30.0325470663	74.7848628549	0	)
(	31.2910428917	74.5041251298	0	)
(	32.5475450618	74.2009288292	0	)
(	33.8016146212	73.8752281186	0	)
(	35.0528094699	73.5269868156	0	)
(	36.3006846032	73.1561785137	0	)
(	37.5447923557	72.7627867018	0	)
(	38.7846826493	72.3468048749	0	)
(	40.0199032453	71.9082366398	0	)
(	41.25	71.4470958122	0	)
(	42.4745171243	70.9634065078	0	)
(	43.6929974457	70.4572032259	0	)
(	44.9049826746	69.9285309252	0	)
(	46.1100136723	69.377445093	0	)
(	47.3076307221	68.8040118063	0	)
(	48.4973738035	68.208307785	0	)
(	49.6787828674	67.5904204387	0	)
(	50.8513981139	66.9504479038	0	)
(	52.0147602721	66.2884990747	0	)
(	53.1684108811	65.6046936256	0	)
(	54.3118925717	64.8991620252	0	)
(	55.4447493505	64.172045543	0	)
(	56.5665268835	63.4234962478	0	)
(	57.6767727809	62.653676998	0	)
(	58.775036882	61.8627614236	0	)
(	59.8608715406	61.0509339005	0	)
(	60.9338319092	60.2183895162	0	)
(	61.9934762242	59.3653340278	0	)
(	63.0393660891	58.4919838117	0	)
(	64.0710667581	57.5985658048	0	)
(	65.0881474169	56.6853174384	0	)
(	66.0901814641	55.7524865631	0	)
(	67.0767467893	54.8003313667	0	)
(	68.0474260501	53.8291202828	0	)
(	69.001806947	52.8391318929	0	)
(	69.939482496	51.8306548194	0	)
(	70.8600512979	50.8039876112	0	)
(	71.7631178058	49.7594386222	0	)
(	72.6482925892	48.6973258809	0	)
(	73.5151925941	47.6179769529	0	)
(	74.3634414009	46.5217287969	0	)
(	75.1926694772	45.4089276113	0	)
(	76.0025144282	44.2799286754	0	)
(	76.792621241	43.1350961822	0	)
(	77.5626425264	41.9748030647	0	)
(	78.3122387549	40.7994308152	0	)
(	79.0410784884	39.6093692974	0	)
(	79.7488386066	38.4050165523	0	)
(	80.4352045285	37.1867785976	0	)
(	81.0998704281	35.95506922	0	)
(	81.7425394453	34.7103097625	0	)
(	82.3629238899	33.4529289043	0	)
(	82.9607454403	32.1833624359	0	)
(	83.5357353365	30.9020530278	0	)
(	84.0876345655	29.6094499941	0	)
(	84.6161940417	28.3060090506	0	)
(	85.1211747795	26.9921920674	0	)
(	85.6023480598	25.6684668172	0	)
(	86.0594955895	24.3353067183	0	)
(	86.4924096534	22.9931905734	0	)
(	86.9008932598	21.6426023034	0	)
(	87.2847602778	20.2840306784	0	)
(	87.6438355679	18.9179690428	0	)
(	87.9779551045	17.5449150386	0	)
(	88.2869660912	16.1653703243	0	)
(	88.570727068	14.7798402901	0	)
(	88.8291080103	13.3888337713	0	)
(	89.0619904209	11.9928627578	0	)
(	89.2692674131	10.5924421015	0	)
(	89.4508437857	9.1880892215	0	)
(	89.6066360906	7.7803238067	0	)
(	89.736572691	6.3696675174	0	)
(	89.8405938124	4.9566436841	0	)
(	89.9186515843	3.5417770063	0	)
(	89.9707100746	2.125593249	0	)
(	89.996745314	0.7086189391	0	)
(	89.996745314	-0.7086189391	0	)
(	89.9707100746	-2.125593249	0	)
(	89.9186515843	-3.5417770063	0	)
(	89.8405938124	-4.9566436841	0	)
(	89.736572691	-6.3696675174	0	)
(	89.6066360906	-7.7803238067	0	)
(	89.4508437857	-9.1880892215	0	)
(	89.2692674131	-10.5924421015	0	)
(	89.0619904209	-11.9928627578	0	)
(	88.8291080103	-13.3888337713	0	)
(	88.570727068	-14.7798402901	0	)
(	88.2869660912	-16.1653703243	0	)
(	87.9779551045	-17.5449150386	0	)
(	87.6438355679	-18.9179690428	0	)
(	87.2847602778	-20.2840306784	0	)
(	86.9008932598	-21.6426023034	0	)
(	86.4924096534	-22.9931905734	0	)
(	86.0594955895	-24.3353067183	0	)
(	85.6023480598	-25.6684668172	0	)
(	85.1211747795	-26.9921920674	0	)
(	84.6161940417	-28.3060090506	0	)
(	84.0876345655	-29.6094499941	0	)
(	83.5357353365	-30.9020530278	0	)
(	82.9607454403	-32.1833624359	0	)
(	82.3629238899	-33.4529289043	0	)
(	81.7425394453	-34.7103097625	0	)
(	81.0998704281	-35.95506922	0	)
(	80.4352045285	-37.1867785976	0	)
(	79.7488386066	-38.4050165523	0	)
(	79.0410784884	-39.6093692974	0	)
(	78.3122387549	-40.7994308152	0	)
(	77.5626425264	-41.9748030647	0	)
(	76.792621241	-43.1350961822	0	)
(	76.0025144282	-44.2799286754	0	)
(	75.1926694772	-45.4089276113	0	)
(	74.3634414009	-46.5217287969	0	)
(	73.5151925941	-47.6179769529	0	)
(	72.6482925892	-48.6973258809	0	)
(	71.7631178058	-49.7594386222	0	)
(	70.8600512979	-50.8039876112	0	)
(	69.939482496	-51.8306548194	0	)
(	69.001806947	-52.8391318929	0	)
(	68.0474260501	-53.8291202828	0	)
(	67.0767467893	-54.8003313667	0	)
(	66.0901814641	-55.7524865631	0	)
(	65.0881474169	-56.6853174384	0	)
(	64.0710667581	-57.5985658048	0	)
(	63.0393660891	-58.4919838117	0	)
(	61.9934762242	-59.3653340278	0	)
(	60.9338319092	-60.2183895162	0	)
(	59.8608715406	-61.0509339005	0	)
(	58.775036882	-61.8627614236	0	)
(	57.6767727809	-62.653676998	0	)
(	56.5665268835	-63.4234962478	0	)
(	55.4447493505	-64.172045543	0	)
(	54.3118925717	-64.8991620252	0	)
(	53.1684108811	-65.6046936256	0	)
(	52.0147602721	-66.2884990747	0	)
(	50.8513981139	-66.9504479038	0	)
(	49.6787828674	-67.5904204387	0	)
(	48.4973738035	-68.208307785	0	)
(	47.3076307221	-68.8040118063	0	)
(	46.1100136723	-69.377445093	0	)
(	44.9049826746	-69.9285309252	0	)
(	43.6929974457	-70.4572032259	0	)
(	42.4745171243	-70.9634065078	0	)
(	41.25	-71.4470958122	0	)
(	40.0199032453	-71.9082366398	0	)
(	38.7846826493	-72.3468048749	0	)
(	37.5447923557	-72.7627867018	0	)
(	36.3006846032	-73.1561785137	0	)
(	35.0528094699	-73.5269868156	0	)
(	33.8016146212	-73.8752281186	0	)
(	32.5475450618	-74.2009288292	0	)
(	31.2910428917	-74.5041251298	0	)
(	30.0325470663	-74.7848628549	0	)
(	28.7724931617	-75.0431973586	0	)
(	27.5113131435	-75.2791933779	0	)
(	26.2494351418	-75.4929248881	0	)
(	24.9872832304	-75.6844749537	0	)
(	23.7252772109	-75.8539355723	0	)
(	22.4638324036	-76.0014075138	0	)
(	21.2033594419	-76.1270001538	0	)
(	19.9442640745	-76.2308313012	0	)
(	18.6869469714	-76.313027022	0	)
(	17.4318035375	-76.373721457	0	)
(	16.1792237313	-76.4130566353	0	)
(	14.9295918902	-76.4311822835	0	)
(	13.6832865621	-76.4282556302	0	)
(	12.4406803433	-76.4044412065	0	)
(	11.2021397232	-76.3599106432	0	)
(	9.9680249356	-76.2948424634	0	)
(	8.7386898165	-76.2094218722	0	)
(	7.5144816689	-76.1038405435	0	)
(	6.2957411349	-75.9782964026	0	)
(	5.0828020743	-75.8329934076	0	)
(	3.8759914501	-75.6681413268	0	)
(	2.6756292222	-75.4839555148	0	)
(	1.4820282465	-75.2806566855	0	)
(	0.2954941833	-75.0584706846	0	)
(	-0.8836745888	-74.8176282586	0	)
(	-2.0551870509	-74.5583648242	0	)
(	-3.2187596142	-74.2809202352	0	)
(	-4.3741161841	-73.985538549	0	)
(	-5.5209882157	-73.6724677923	0	)
(	-6.6591147629	-73.3419597262	0	)
(	-7.7882425199	-72.9942696112	0	)
(	-8.9081258553	-72.6296559718	0	)
(	-10.0185268387	-72.2483803615	0	)
(	-11.1192152605	-71.8507071284	0	)
(	-12.2099686441	-71.4369031812	0	)
(	-13.2905722512	-71.0072377558	0	)
(	-14.3608190795	-70.5619821837	0	)
(	-15.4205098537	-70.1014096609	0	)
(	-16.4694530093	-69.6257950191	0	)
(	-17.5074646696	-69.1354144977	0	)
(	-18.5343686155	-68.6305455188	0	)
(	-19.5499962488	-68.1114664636	0	)
(	-20.5541865487	-67.5784564516	0	)
(	-21.5467860215	-67.0317951219	0	)
(	-22.5276486439	-66.471762418	0	)
(	-23.4966358003	-65.8986383748	0	)
(	-24.4536162128	-65.3127029094	0	)
(	-25.3984658662	-64.714235615	0	)
(	-26.3310679261	-64.1035155583	0	)
(	-27.2513126514	-63.4808210805	0	)
(	-28.1590973009	-62.846429603	0	)
(	-29.0543260348	-62.2006174358	0	)
(	-29.9369098094	-61.5436595918	0	)
(	-30.8067662683	-60.8758296039	0	)
(	-31.6638196267	-60.1973993481	0	)
(	-32.5080005518	-59.5086388703	0	)
(	-33.3392460377	-58.8098162183	0	)
(	-34.1574992763	-58.1011972792	0	)
(	-34.9627095228	-57.3830456213	0	)
(	-35.7548319576	-56.6556223418	0	)
(	-36.5338275441	-55.9191859198	0	)
(	-37.2996628816	-55.1739920744	0	)
(	-38.0523100559	-54.4202936291	0	)
(	-38.7917464848	-53.6583403815	0	)
(	-39.5179547617	-52.888378979	0	)
(	-40.2309224948	-52.1106528005	0	)
(	-40.9306421441	-51.3254018437	0	)
(	-41.6171108552	-50.5328626193	0	)
(	-42.290330291	-49.7332680505	0	)
(	-42.9503064606	-48.9268473794	0	)
(	-43.5970495464	-48.1138260792	0	)
(	-44.2305737291	-47.2944257732	0	)
(	-44.850897011	-46.4688641602	0	)
(	-45.4580410379	-45.6373549454	0	)
(	-46.0520309199	-44.8001077794	0	)
(	-46.6328950505	-43.9573282019	0	)
(	-47.2006649258	-43.1092175935	0	)
(	-47.7553749622	-42.2559731331	0	)
(	-48.2970623143	-41.3977877617	0	)
(	-48.8257666924	-40.5348501534	0	)
(	-49.3415301798	-39.6673446925	0	)
(	-49.8443970512	-38.7954514572	0	)
(	-50.33441359	-37.9193462093	0	)
(	-50.8116279082	-37.0392003912	0	)
(	-51.2760897656	-36.1551811286	0	)
(	-51.727850391	-35.2674512399	0	)
(	-52.1669623043	-34.3761692516	0	)
(	-52.5934791407	-33.4814894199	0	)
(	-53.0074554755	-32.5835617595	0	)
(	-53.4089466522	-31.6825320764	0	)
(	-53.7980086115	-30.7785420092	0	)
(	-54.1746977238	-29.8717290743	0	)
(	-54.539070623	-28.9622267179	0	)
(	-54.8911840443	-28.0501643739	0	)
(	-55.2310946635	-27.1356675267	0	)
(	-55.5588589407	-26.2188577804	0	)
(	-55.8745329667	-25.2998529322	0	)
(	-56.1781723124	-24.3787670529	0	)
(	-56.4698318826	-23.4557105705	0	)
(	-56.7495657733	-22.5307903604	0	)
(	-57.0174271325	-21.6041098398	0	)
(	-57.2734680262	-20.6757690671	0	)
(	-57.5177393071	-19.7458648452	0	)
(	-57.7502904893	-18.8144908306	0	)
(	-57.9711696266	-17.8817376453	0	)
(	-58.1804231955	-16.9476929942	0	)
(	-58.3780959837	-16.012441785	0	)
(	-58.5642309825	-15.0760662533	0	)
(	-58.7388692856	-14.1386460902	0	)
(	-58.9020499918	-13.2002585743	0	)
(	-59.0538101139	-12.2609787058	0	)
(	-59.1941844924	-11.3208793451	0	)
(	-59.3232057152	-10.3800313527	0	)
(	-59.4409040427	-9.438503733	0	)
(	-59.5473073384	-8.4963637802	0	)
(	-59.6424410055	-7.553677226	0	)
(	-59.7263279291	-6.6105083905	0	)
(	-59.7989884247	-5.6669203336	0	)
(	-59.860440192	-4.7229750093	0	)
(	-59.9106982755	-3.7787334207	0	)
(	-59.9497750303	-2.8342557766	0	)
(	-59.977680095	-1.8896016491	0	)
(	-59.9944203695	-0.944830132	0	)
(	-60	-1.46957615897682E-14	0	)


                );
    }
);

fields              (  pPrime2Mean );
//axis        xyz;           // This I don't know why is needed, but needs to be defined as well?


// ************************************************************************* //
