/*--------------------------------*- C++ -*----------------------------------*\
| =========                 |                                                 |
| \\      /  F ield         | OpenFOAM: The Open Source CFD Toolbox           |
|  \\    /   O peration     | Version:  4.0                                   |
|   \\  /    A nd           | Web:      www.OpenFOAM.org                      |
|    \\/     M anipulation  |                                                 |
\*---------------------------------------------------------------------------*/
FoamFile
{
    version     2.0;
    format      ascii;
    class       dictionary;
    location    "system";
    object      sample;
}
// * * * * * * * * * * * * * * * * * * * * * * * * * * * * * * * * * * * * * //

type sets;
libs ("libsampling.so");

interpolationScheme cellPointFace;

setFormat       raw;

sets
(
    points_1001
    {
         type    cloud;
        axis    xyz;
        points  (

(	-60	0	0	)
(	-59.9991117327	0.3769904983	0	)
(	-59.9964468957	0.7539772754	0	)
(	-59.9920053838	1.1309566086	0	)
(	-59.9857870217	1.5079247719	0	)
(	-59.9777915642	1.8848780344	0	)
(	-59.9680186961	2.2618126588	0	)
(	-59.9564680323	2.6387248997	0	)
(	-59.9431391181	3.0156110021	0	)
(	-59.9280314293	3.3924671996	0	)
(	-59.9111443723	3.769289713	0	)
(	-59.8924772844	4.1460747484	0	)
(	-59.872029434	4.5228184962	0	)
(	-59.849800021	4.8995171287	0	)
(	-59.8257881768	5.276166799	0	)
(	-59.7999929648	5.6527636395	0	)
(	-59.7724133807	6.02930376	0	)
(	-59.743048353	6.4057832462	0	)
(	-59.7118967431	6.7821981584	0	)
(	-59.6789573459	7.1585445294	0	)
(	-59.6442288901	7.5348183636	0	)
(	-59.607710039	7.9110156347	0	)
(	-59.5693993904	8.287132285	0	)
(	-59.5292954776	8.6631642229	0	)
(	-59.4873967697	9.0391073222	0	)
(	-59.4437016724	9.4149574202	0	)
(	-59.3982085281	9.7907103161	0	)
(	-59.350915617	10.1663617695	0	)
(	-59.3018211573	10.5419074993	0	)
(	-59.2509233062	10.9173431817	0	)
(	-59.1982201605	11.2926644488	0	)
(	-59.143709757	11.6678668874	0	)
(	-59.0873900736	12.0429460373	0	)
(	-59.0292590298	12.4178973899	0	)
(	-58.9693144875	12.7927163867	0	)
(	-58.9075542519	13.167398418	0	)
(	-58.8439760722	13.5419388213	0	)
(	-58.7785776425	13.9163328801	0	)
(	-58.7113566025	14.2905758221	0	)
(	-58.6423105385	14.6646628184	0	)
(	-58.5714369843	15.0385889816	0	)
(	-58.4987334222	15.4123493646	0	)
(	-58.4241972835	15.7859389595	0	)
(	-58.3478259503	16.1593526957	0	)
(	-58.2696167555	16.5325854391	0	)
(	-58.1895669845	16.9056319906	0	)
(	-58.107673876	17.2784870847	0	)
(	-58.0239346229	17.6511453885	0	)
(	-57.9383463738	18.0236014998	0	)
(	-57.8509062334	18.3958499468	0	)
(	-57.7616112643	18.7678851859	0	)
(	-57.6704584877	19.1397016012	0	)
(	-57.5774448847	19.5112935028	0	)
(	-57.4825673975	19.8826551259	0	)
(	-57.3858229302	20.2537806295	0	)
(	-57.2872083507	20.6246640953	0	)
(	-57.1867204915	20.9952995263	0	)
(	-57.0843561506	21.3656808462	0	)
(	-56.9801120936	21.7358018977	0	)
(	-56.8739850542	22.1056564419	0	)
(	-56.765971736	22.4752381569	0	)
(	-56.6560688134	22.8445406367	0	)
(	-56.5442729335	23.2135573906	0	)
(	-56.4305807168	23.5822818417	0	)
(	-56.3149887588	23.9507073261	0	)
(	-56.1974936318	24.3188270919	0	)
(	-56.0780918857	24.6866342983	0	)
(	-55.9567800495	25.0541220145	0	)
(	-55.8335546332	25.421283219	0	)
(	-55.7084121288	25.7881107983	0	)
(	-55.5813490118	26.1545975466	0	)
(	-55.4523617429	26.5207361643	0	)
(	-55.3214467693	26.8865192578	0	)
(	-55.1886005262	27.2519393381	0	)
(	-55.0538194384	27.6169888202	0	)
(	-54.9170999219	27.9816600227	0	)
(	-54.7784383853	28.3459451662	0	)
(	-54.6378312315	28.7098363736	0	)
(	-54.495274859	29.0733256684	0	)
(	-54.3507656638	29.4364049748	0	)
(	-54.2043000409	29.7990661164	0	)
(	-54.055874386	30.1613008159	0	)
(	-53.9054850969	30.5231006947	0	)
(	-53.7531285751	30.8844572715	0	)
(	-53.5988012279	31.2453619627	0	)
(	-53.4424994695	31.6058060809	0	)
(	-53.2842197233	31.9657808354	0	)
(	-53.1239584228	32.3252773305	0	)
(	-52.9617120139	32.684286566	0	)
(	-52.7974769565	33.0427994363	0	)
(	-52.6312497259	33.4008067299	0	)
(	-52.4630268149	33.7582991294	0	)
(	-52.2928047353	34.1152672104	0	)
(	-52.1205800197	34.4717014419	0	)
(	-51.9463492233	34.8275921854	0	)
(	-51.7701089255	35.1829296947	0	)
(	-51.5918557318	35.5377041161	0	)
(	-51.4115862756	35.8919054872	0	)
(	-51.2292972199	36.2455237375	0	)
(	-51.0449852589	36.5985486877	0	)
(	-50.8586471203	36.9509700497	0	)
(	-50.6702795665	37.3027774265	0	)
(	-50.4798793968	37.6539603117	0	)
(	-50.287443449	38.0045080898	0	)
(	-50.0929686014	38.3544100358	0	)
(	-49.8964517744	38.7036553155	0	)
(	-49.6978899326	39.0522329849	0	)
(	-49.4972800861	39.4001319907	0	)
(	-49.2946192931	39.74734117	0	)
(	-49.089904661	40.0938492506	0	)
(	-48.8831333488	40.4396448507	0	)
(	-48.6743025684	40.7847164793	0	)
(	-48.4634095869	41.1290525361	0	)
(	-48.2504517282	41.472641312	0	)
(	-48.0354263751	41.8154709887	0	)
(	-47.8183309706	42.1575296394	0	)
(	-47.5991630203	42.4988052287	0	)
(	-47.377920094	42.8392856129	0	)
(	-47.1545998277	43.1789585405	0	)
(	-46.9291999252	43.5178116522	0	)
(	-46.7017181601	43.8558324814	0	)
(	-46.4721523777	44.1930084545	0	)
(	-46.2405004966	44.5293268912	0	)
(	-46.0067605108	44.8647750049	0	)
(	-45.7709304916	45.1993399034	0	)
(	-45.533008589	45.533008589	0	)
(	-45.292993034	45.8657679592	0	)
(	-45.0508821403	46.197604807	0	)
(	-44.806674306	46.5285058218	0	)
(	-44.5603680154	46.8584575895	0	)
(	-44.3119618411	47.1874465934	0	)
(	-44.0614544456	47.5154592147	0	)
(	-43.8088445832	47.8424817333	0	)
(	-43.5541311016	48.168500328	0	)
(	-43.2973129441	48.4935010779	0	)
(	-43.038389151	48.8174699624	0	)
(	-42.7773588616	49.1403928625	0	)
(	-42.514221316	49.4622555611	0	)
(	-42.2489758567	49.7830437443	0	)
(	-41.9816219306	50.1027430017	0	)
(	-41.7121590905	50.4213388277	0	)
(	-41.4405869973	50.738816622	0	)
(	-41.1669054212	51.0551616908	0	)
(	-40.8911142437	51.3703592473	0	)
(	-40.6132134595	51.6843944134	0	)
(	-40.3332031777	51.9972522197	0	)
(	-40.0510836243	52.3089176073	0	)
(	-39.7668551431	52.6193754285	0	)
(	-39.4805181978	52.9286104477	0	)
(	-39.1920733739	53.2366073427	0	)
(	-38.9015213797	53.5433507059	0	)
(	-38.6088630487	53.848825045	0	)
(	-38.3140993406	54.1530147846	0	)
(	-38.0172313434	54.455904267	0	)
(	-37.7182602749	54.7574777537	0	)
(	-37.417187484	55.0577194264	0	)
(	-37.114014453	55.3566133884	0	)
(	-36.8087427984	55.6541436657	0	)
(	-36.5013742729	55.9502942085	0	)
(	-36.191910767	56.2450488922	0	)
(	-35.8803543102	56.5383915192	0	)
(	-35.5667070729	56.8303058196	0	)
(	-35.2509713678	57.1207754535	0	)
(	-34.9331496512	57.4097840113	0	)
(	-34.6132445249	57.6973150163	0	)
(	-34.291258737	57.983351925	0	)
(	-33.9671951843	58.2678781294	0	)
(	-33.6410569127	58.5508769584	0	)
(	-33.3128471195	58.8323316788	0	)
(	-32.9825691541	59.1122254973	0	)
(	-32.65022652	59.390541562	0	)
(	-32.3158228756	59.667262964	0	)
(	-31.9793620361	59.9423727387	0	)
(	-31.6408479743	60.2158538677	0	)
(	-31.3002848223	60.4876892806	0	)
(	-30.9576768727	60.7578618563	0	)
(	-30.6130285797	61.0263544248	0	)
(	-30.2663445606	61.293149769	0	)
(	-29.917629597	61.5582306265	0	)
(	-29.5668886358	61.8215796909	0	)
(	-29.2141267905	62.0831796141	0	)
(	-28.8593493427	62.343013008	0	)
(	-28.5025617426	62.6010624459	0	)
(	-28.143769611	62.8573104646	0	)
(	-27.7829787394	63.1117395664	0	)
(	-27.4201950921	63.3643322206	0	)
(	-27.0554248064	63.6150708658	0	)
(	-26.6886741943	63.8639379112	0	)
(	-26.3199497432	64.1109157391	0	)
(	-25.949258117	64.3559867065	0	)
(	-25.576606157	64.5991331472	0	)
(	-25.202000883	64.8403373735	0	)
(	-24.8254494942	65.0795816785	0	)
(	-24.4469593699	65.316848338	0	)
(	-24.0665380707	65.5521196123	0	)
(	-23.6841933392	65.7853777485	0	)
(	-23.299933101	66.0166049823	0	)
(	-22.9137654651	66.2457835403	0	)
(	-22.5256987254	66.4728956419	0	)
(	-22.1357413607	66.6979235013	0	)
(	-21.7439020359	66.9208493299	0	)
(	-21.3501896028	67.1416553381	0	)
(	-20.9546131005	67.3603237375	0	)
(	-20.5571817561	67.5768367433	0	)
(	-20.1579049856	67.7911765758	0	)
(	-19.7567923942	68.0033254634	0	)
(	-19.3538537773	68.2132656442	0	)
(	-18.9490991205	68.4209793684	0	)
(	-18.5425386007	68.6264489002	0	)
(	-18.1341825863	68.8296565206	0	)
(	-17.7240416377	69.0305845289	0	)
(	-17.3121265079	69.2292152455	0	)
(	-16.8984481429	69.4255310139	0	)
(	-16.4830176819	69.619514203	0	)
(	-16.065846458	69.8111472091	0	)
(	-15.6469459982	70.0004124587	0	)
(	-15.2263280243	70.1872924102	0	)
(	-14.8040044524	70.3717695566	0	)
(	-14.3799873938	70.5538264275	0	)
(	-13.9542891551	70.7334455918	0	)
(	-13.5269222381	70.9106096595	0	)
(	-13.0978993405	71.0853012843	0	)
(	-12.6672333555	71.2575031659	0	)
(	-12.2349373727	71.4271980523	0	)
(	-11.8010246771	71.594368742	0	)
(	-11.3655087502	71.7589980868	0	)
(	-10.9284032697	71.9210689935	0	)
(	-10.489722109	72.0805644267	0	)
(	-10.0494793382	72.2374674109	0	)
(	-9.6076892232	72.391761033	0	)
(	-9.1643662258	72.5434284448	0	)
(	-8.719525004	72.6924528651	0	)
(	-8.2731804114	72.8388175819	0	)
(	-7.8253474974	72.9825059554	0	)
(	-7.3760415067	73.1235014197	0	)
(	-6.9252778794	73.2617874858	0	)
(	-6.4730722503	73.3973477434	0	)
(	-6.0194404492	73.5301658636	0	)
(	-5.5643985001	73.6602256011	0	)
(	-5.1079626213	73.787510797	0	)
(	-4.6501492246	73.9120053804	0	)
(	-4.1909749151	74.0336933716	0	)
(	-3.7304564908	74.1525588841	0	)
(	-3.2686109424	74.2685861267	0	)
(	-2.8054554522	74.3817594066	0	)
(	-2.3410073941	74.492063131	0	)
(	-1.8752843328	74.5994818099	0	)
(	-1.4083040235	74.7040000585	0	)
(	-0.9400844109	74.8056025995	0	)
(	-0.4706436289	74.9042742651	0	)
(	-4.59242549680257E-15	75	0	)
(	0.4718279659	75.0927648633	0	)
(	0.9448215716	75.1825540311	0	)
(	1.4189619339	75.2693527986	0	)
(	1.8942299837	75.3531465826	0	)
(	2.3706064676	75.4339209239	0	)
(	2.8480719483	75.5116614895	0	)
(	3.3266068053	75.586354075	0	)
(	3.8061912361	75.6579846068	0	)
(	4.2868052573	75.7265391447	0	)
(	4.7684287048	75.7920038839	0	)
(	5.2510412359	75.8543651572	0	)
(	5.7346223291	75.913609438	0	)
(	6.2191512861	75.9697233415	0	)
(	6.7046072323	76.0226936281	0	)
(	7.1909691184	76.0725072046	0	)
(	7.678215721	76.1191511275	0	)
(	8.1663256439	76.1626126042	0	)
(	8.6552773196	76.2028789961	0	)
(	9.1450490103	76.2399378204	0	)
(	9.6356188089	76.2737767523	0	)
(	10.1269646407	76.3043836274	0	)
(	10.6190642645	76.3317464436	0	)
(	11.1118952738	76.3558533637	0	)
(	11.6054350985	76.3766927172	0	)
(	12.0996610058	76.3942530024	0	)
(	12.5945501022	76.4085228891	0	)
(	13.0900793343	76.4194912201	0	)
(	13.5862254907	76.4271470135	0	)
(	14.0829652036	76.431479465	0	)
(	14.5802749498	76.4324779498	0	)
(	15.0781310526	76.4301320247	0	)
(	15.5765096833	76.4244314301	0	)
(	16.0753868631	76.4153660923	0	)
(	16.574738464	76.4029261251	0	)
(	17.0745402112	76.3871018321	0	)
(	17.5747676845	76.3678837089	0	)
(	18.0753963196	76.3452624443	0	)
(	18.5764014107	76.3192289233	0	)
(	19.0777581114	76.289774228	0	)
(	19.579441437	76.2568896404	0	)
(	20.0814262662	76.2205666438	0	)
(	20.5836873428	76.1807969248	0	)
(	21.0861992776	76.1375723751	0	)
(	21.5889365503	76.0908850937	0	)
(	22.0918735117	76.0407273881	0	)
(	22.5949843849	75.9870917768	0	)
(	23.0982432682	75.9299709906	0	)
(	23.6016241361	75.8693579744	0	)
(	24.1051008421	75.8052458895	0	)
(	24.6086471203	75.7376281143	0	)
(	25.1122365876	75.6664982472	0	)
(	25.6158427457	75.5918501073	0	)
(	26.1194389831	75.5136777367	0	)
(	26.6229985775	75.4319754016	0	)
(	27.1264946976	75.3467375947	0	)
(	27.6299004055	75.2579590358	0	)
(	28.1331886588	75.1656346743	0	)
(	28.6363323128	75.06975969	0	)
(	29.1393041227	74.9703294953	0	)
(	29.6420767457	74.8673397361	0	)
(	30.1446227437	74.7607862937	0	)
(	30.6469145851	74.6506652861	0	)
(	31.1489246473	74.5369730693	0	)
(	31.6506252192	74.4197062391	0	)
(	32.1519885031	74.298861632	0	)
(	32.6529866176	74.1744363268	0	)
(	33.1535915995	74.0464276459	0	)
(	33.6537754063	73.9148331569	0	)
(	34.1535099191	73.7796506732	0	)
(	34.6527669443	73.6408782558	0	)
(	35.1515182164	73.4985142144	0	)
(	35.6497354006	73.3525571085	0	)
(	36.1473900952	73.2030057488	0	)
(	36.6444538338	73.0498591979	0	)
(	37.1408980883	72.8931167719	0	)
(	37.6366942709	72.7327780414	0	)
(	38.1318137374	72.5688428321	0	)
(	38.6262277887	72.4013112266	0	)
(	39.1199076746	72.2301835646	0	)
(	39.6128245953	72.0554604446	0	)
(	40.1049497047	71.8771427242	0	)
(	40.5962541128	71.6952315217	0	)
(	41.0867088882	71.5097282163	0	)
(	41.5762850611	71.3206344495	0	)
(	42.0649536255	71.1279521256	0	)
(	42.5526855424	70.9316834128	0	)
(	43.0394517419	70.7318307435	0	)
(	43.5252231264	70.5283968157	0	)
(	44.0099705731	70.3213845931	0	)
(	44.4936649367	70.1107973061	0	)
(	44.9762770521	69.8966384525	0	)
(	45.4577777372	69.6789117978	0	)
(	45.9381377959	69.4576213762	0	)
(	46.4173280202	69.2327714909	0	)
(	46.8953191938	69.0043667148	0	)
(	47.3720820942	68.7724118906	0	)
(	47.8475874958	68.5369121318	0	)
(	48.3218061727	68.297872823	0	)
(	48.7947089016	68.0552996199	0	)
(	49.2662664641	67.8091984503	0	)
(	49.7364496503	67.5595755139	0	)
(	50.2052292608	67.3064372829	0	)
(	50.6725761103	67.0497905023	0	)
(	51.1384610299	66.7896421898	0	)
(	51.6028548702	66.5259996366	0	)
(	52.0657285041	66.2588704071	0	)
(	52.5270528295	65.9882623391	0	)
(	52.9867987724	65.7141835443	0	)
(	53.4449372896	65.4366424078	0	)
(	53.9014393718	65.1556475886	0	)
(	54.3562760459	64.8712080197	0	)
(	54.8094183787	64.5833329074	0	)
(	55.2608374792	64.2920317322	0	)
(	55.7105045013	63.9973142479	0	)
(	56.1583906475	63.6991904821	0	)
(	56.604467171	63.3976707357	0	)
(	57.0487053789	63.0927655828	0	)
(	57.4910766349	62.7844858704	0	)
(	57.9315523627	62.4728427186	0	)
(	58.3701040482	62.1578475198	0	)
(	58.8067032427	61.8395119386	0	)
(	59.2413215659	61.5178479114	0	)
(	59.6739307087	61.1928676463	0	)
(	60.1045024358	60.8645836222	0	)
(	60.533008589	60.533008589	0	)
(	60.9594210898	60.1981555664	0	)
(	61.3837119425	59.8600378441	0	)
(	61.8058532366	59.5186689808	0	)
(	62.2258171504	59.1740628036	0	)
(	62.6435759531	58.8262334079	0	)
(	63.0591020082	58.4751951561	0	)
(	63.472367776	58.1209626777	0	)
(	63.8833458168	57.7635508676	0	)
(	64.2920087934	57.4029748865	0	)
(	64.698329474	57.0392501591	0	)
(	65.1022807353	56.6723923742	0	)
(	65.5038355651	56.3024174831	0	)
(	65.9029670648	55.9293416993	0	)
(	66.299648453	55.5531814972	0	)
(	66.6938530676	55.1739536116	0	)
(	67.0855543688	54.7916750364	0	)
(	67.4747259419	54.4063630236	0	)
(	67.8613415004	54.0180350825	0	)
(	68.2453748879	53.6267089786	0	)
(	68.6268000819	53.2324027324	0	)
(	69.0055911958	52.8351346183	0	)
(	69.3817224818	52.4349231636	0	)
(	69.7551683338	52.0317871469	0	)
(	70.1259032902	51.6257455977	0	)
(	70.4939020359	51.2168177941	0	)
(	70.859139406	50.8050232626	0	)
(	71.2215903877	50.3903817759	0	)
(	71.5812301232	49.972913352	0	)
(	71.9380339125	49.5526382529	0	)
(	72.2919772157	49.1295769831	0	)
(	72.6430356561	48.7037502879	0	)
(	72.9911850223	48.2751791524	0	)
(	73.336401271	47.8438847997	0	)
(	73.6786605298	47.4098886897	0	)
(	74.0179390994	46.9732125169	0	)
(	74.3542134563	46.5338782098	0	)
(	74.6874602553	46.0919079282	0	)
(	75.0176563321	45.6473240627	0	)
(	75.3447787058	45.2001492319	0	)
(	75.6688045811	44.7504062816	0	)
(	75.9897113511	44.2981182827	0	)
(	76.3074765996	43.8433085294	0	)
(	76.6220781036	43.3860005376	0	)
(	76.9334938355	42.9262180429	0	)
(	77.2417019656	42.4639849989	0	)
(	77.5466808648	41.9993255754	0	)
(	77.8484091063	41.5322641564	0	)
(	78.1468654684	41.062825338	0	)
(	78.4420289367	40.591033927	0	)
(	78.7338787063	40.1169149383	0	)
(	79.0223941843	39.6404935933	0	)
(	79.3075549916	39.1617953178	0	)
(	79.5893409657	38.6808457398	0	)
(	79.8677321623	38.1976706878	0	)
(	80.1427088581	37.7122961882	0	)
(	80.4142515524	37.2247484635	0	)
(	80.6823409695	36.73505393	0	)
(	80.946958061	36.2432391959	0	)
(	81.2080840075	35.7493310587	0	)
(	81.4657002208	35.2533565033	0	)
(	81.719788346	34.7553426994	0	)
(	81.9703302638	34.2553169999	0	)
(	82.2173080917	33.7533069376	0	)
(	82.4607041868	33.2493402239	0	)
(	82.7005011473	32.7434447458	0	)
(	82.9366818146	32.2356485637	0	)
(	83.1692292749	31.7259799093	0	)
(	83.3981268616	31.2144671825	0	)
(	83.6233581566	30.7011389499	0	)
(	83.8449069924	30.1860239415	0	)
(	84.0627574537	29.6691510489	0	)
(	84.2768938795	29.1505493223	0	)
(	84.4873008645	28.6302479683	0	)
(	84.6939632608	28.1082763471	0	)
(	84.8968661799	27.5846639703	0	)
(	85.0959949942	27.0594404981	0	)
(	85.2913353382	26.5326357367	0	)
(	85.4828731109	26.0042796358	0	)
(	85.6705944766	25.4744022858	0	)
(	85.854485867	24.9430339153	0	)
(	86.0345339824	24.4102048885	0	)
(	86.2107257932	23.8759457024	0	)
(	86.3830485414	23.340286984	0	)
(	86.5514897422	22.8032594879	0	)
(	86.716037185	22.2648940931	0	)
(	86.876678935	21.7252218009	0	)
(	87.0334033347	21.1842737314	0	)
(	87.1861990048	20.6420811214	0	)
(	87.3350548457	20.0986753211	0	)
(	87.4799600389	19.5540877915	0	)
(	87.6209040478	19.0083501016	0	)
(	87.7578766191	18.4614939256	0	)
(	87.8908677841	17.9135510399	0	)
(	88.0198678595	17.3645533202	0	)
(	88.1448674488	16.8145327391	0	)
(	88.2658574431	16.2635213624	0	)
(	88.3828290221	15.711551347	0	)
(	88.4957736554	15.1586549374	0	)
(	88.6046831031	14.6048644632	0	)
(	88.7095494168	14.0502123358	0	)
(	88.8103649409	13.4947310459	0	)
(	88.9071223128	12.9384531599	0	)
(	88.9998144641	12.3814113177	0	)
(	89.0884346215	11.8236382291	0	)
(	89.1729763071	11.2651666711	0	)
(	89.2534333396	10.7060294848	0	)
(	89.3297998349	10.1462595726	0	)
(	89.4020702065	9.5858898951	0	)
(	89.4702391665	9.0249534677	0	)
(	89.5343017257	8.4634833583	0	)
(	89.5942531947	7.9015126836	0	)
(	89.6500891841	7.3390746066	0	)
(	89.7018056051	6.776202333	0	)
(	89.7493986698	6.2129291087	0	)
(	89.792864892	5.6492882164	0	)
(	89.8322010871	5.0853129727	0	)
(	89.8674043728	4.5210367249	0	)
(	89.8984721694	3.956492848	0	)
(	89.9254022	3.3917147417	0	)
(	89.9481924906	2.8267358273	0	)
(	89.9668413708	2.2615895446	0	)
(	89.9813474734	1.6963093487	0	)
(	89.9917097349	1.1309287071	0	)
(	89.9979273957	0.5654810965	0	)
(	90	1.10218211923262E-14	0	)
(	89.9979273957	-0.5654810965	0	)
(	89.9917097349	-1.1309287071	0	)
(	89.9813474734	-1.6963093487	0	)
(	89.9668413708	-2.2615895446	0	)
(	89.9481924906	-2.8267358273	0	)
(	89.9254022	-3.3917147417	0	)
(	89.8984721694	-3.956492848	0	)
(	89.8674043728	-4.5210367249	0	)
(	89.8322010871	-5.0853129727	0	)
(	89.792864892	-5.6492882164	0	)
(	89.7493986698	-6.2129291087	0	)
(	89.7018056051	-6.776202333	0	)
(	89.6500891841	-7.3390746066	0	)
(	89.5942531947	-7.9015126836	0	)
(	89.5343017257	-8.4634833583	0	)
(	89.4702391665	-9.0249534677	0	)
(	89.4020702065	-9.5858898951	0	)
(	89.3297998349	-10.1462595726	0	)
(	89.2534333396	-10.7060294848	0	)
(	89.1729763071	-11.2651666711	0	)
(	89.0884346215	-11.8236382291	0	)
(	88.9998144641	-12.3814113177	0	)
(	88.9071223128	-12.9384531599	0	)
(	88.8103649409	-13.4947310459	0	)
(	88.7095494168	-14.0502123358	0	)
(	88.6046831031	-14.6048644632	0	)
(	88.4957736554	-15.1586549374	0	)
(	88.3828290221	-15.711551347	0	)
(	88.2658574431	-16.2635213624	0	)
(	88.1448674488	-16.8145327391	0	)
(	88.0198678595	-17.3645533202	0	)
(	87.8908677841	-17.9135510399	0	)
(	87.7578766191	-18.4614939256	0	)
(	87.6209040478	-19.0083501016	0	)
(	87.4799600389	-19.5540877915	0	)
(	87.3350548457	-20.0986753211	0	)
(	87.1861990048	-20.6420811214	0	)
(	87.0334033347	-21.1842737314	0	)
(	86.876678935	-21.7252218009	0	)
(	86.716037185	-22.2648940931	0	)
(	86.5514897422	-22.8032594879	0	)
(	86.3830485414	-23.340286984	0	)
(	86.2107257932	-23.8759457024	0	)
(	86.0345339824	-24.4102048885	0	)
(	85.854485867	-24.9430339153	0	)
(	85.6705944766	-25.4744022858	0	)
(	85.4828731109	-26.0042796358	0	)
(	85.2913353382	-26.5326357367	0	)
(	85.0959949942	-27.0594404981	0	)
(	84.8968661799	-27.5846639703	0	)
(	84.6939632608	-28.1082763471	0	)
(	84.4873008645	-28.6302479683	0	)
(	84.2768938795	-29.1505493223	0	)
(	84.0627574537	-29.6691510489	0	)
(	83.8449069924	-30.1860239415	0	)
(	83.6233581566	-30.7011389499	0	)
(	83.3981268616	-31.2144671825	0	)
(	83.1692292749	-31.7259799093	0	)
(	82.9366818146	-32.2356485637	0	)
(	82.7005011473	-32.7434447458	0	)
(	82.4607041868	-33.2493402239	0	)
(	82.2173080917	-33.7533069376	0	)
(	81.9703302638	-34.2553169999	0	)
(	81.719788346	-34.7553426994	0	)
(	81.4657002208	-35.2533565033	0	)
(	81.2080840075	-35.7493310587	0	)
(	80.946958061	-36.2432391959	0	)
(	80.6823409695	-36.73505393	0	)
(	80.4142515524	-37.2247484635	0	)
(	80.1427088581	-37.7122961882	0	)
(	79.8677321623	-38.1976706878	0	)
(	79.5893409657	-38.6808457398	0	)
(	79.3075549916	-39.1617953178	0	)
(	79.0223941843	-39.6404935933	0	)
(	78.7338787063	-40.1169149383	0	)
(	78.4420289367	-40.591033927	0	)
(	78.1468654684	-41.062825338	0	)
(	77.8484091063	-41.5322641564	0	)
(	77.5466808648	-41.9993255754	0	)
(	77.2417019656	-42.4639849989	0	)
(	76.9334938355	-42.9262180429	0	)
(	76.6220781036	-43.3860005376	0	)
(	76.3074765996	-43.8433085294	0	)
(	75.9897113511	-44.2981182827	0	)
(	75.6688045811	-44.7504062816	0	)
(	75.3447787058	-45.2001492319	0	)
(	75.0176563321	-45.6473240627	0	)
(	74.6874602553	-46.0919079282	0	)
(	74.3542134563	-46.5338782098	0	)
(	74.0179390994	-46.9732125169	0	)
(	73.6786605298	-47.4098886897	0	)
(	73.336401271	-47.8438847997	0	)
(	72.9911850223	-48.2751791524	0	)
(	72.6430356561	-48.7037502879	0	)
(	72.2919772157	-49.1295769831	0	)
(	71.9380339125	-49.5526382529	0	)
(	71.5812301232	-49.972913352	0	)
(	71.2215903877	-50.3903817759	0	)
(	70.859139406	-50.8050232626	0	)
(	70.4939020359	-51.2168177941	0	)
(	70.1259032902	-51.6257455977	0	)
(	69.7551683338	-52.0317871469	0	)
(	69.3817224818	-52.4349231636	0	)
(	69.0055911958	-52.8351346183	0	)
(	68.6268000819	-53.2324027324	0	)
(	68.2453748879	-53.6267089786	0	)
(	67.8613415004	-54.0180350825	0	)
(	67.4747259419	-54.4063630236	0	)
(	67.0855543688	-54.7916750364	0	)
(	66.6938530676	-55.1739536116	0	)
(	66.299648453	-55.5531814972	0	)
(	65.9029670648	-55.9293416993	0	)
(	65.5038355651	-56.3024174831	0	)
(	65.1022807353	-56.6723923742	0	)
(	64.698329474	-57.0392501591	0	)
(	64.2920087934	-57.4029748865	0	)
(	63.8833458168	-57.7635508676	0	)
(	63.472367776	-58.1209626777	0	)
(	63.0591020082	-58.4751951561	0	)
(	62.6435759531	-58.8262334079	0	)
(	62.2258171504	-59.1740628036	0	)
(	61.8058532366	-59.5186689808	0	)
(	61.3837119425	-59.8600378441	0	)
(	60.9594210898	-60.1981555664	0	)
(	60.533008589	-60.533008589	0	)
(	60.1045024358	-60.8645836222	0	)
(	59.6739307087	-61.1928676463	0	)
(	59.2413215659	-61.5178479114	0	)
(	58.8067032427	-61.8395119386	0	)
(	58.3701040482	-62.1578475198	0	)
(	57.9315523627	-62.4728427186	0	)
(	57.4910766349	-62.7844858704	0	)
(	57.0487053789	-63.0927655828	0	)
(	56.604467171	-63.3976707357	0	)
(	56.1583906475	-63.6991904821	0	)
(	55.7105045013	-63.9973142479	0	)
(	55.2608374792	-64.2920317322	0	)
(	54.8094183787	-64.5833329074	0	)
(	54.3562760459	-64.8712080197	0	)
(	53.9014393718	-65.1556475886	0	)
(	53.4449372896	-65.4366424078	0	)
(	52.9867987724	-65.7141835443	0	)
(	52.5270528295	-65.9882623391	0	)
(	52.0657285041	-66.2588704071	0	)
(	51.6028548702	-66.5259996366	0	)
(	51.1384610299	-66.7896421898	0	)
(	50.6725761103	-67.0497905023	0	)
(	50.2052292608	-67.3064372829	0	)
(	49.7364496503	-67.5595755139	0	)
(	49.2662664641	-67.8091984503	0	)
(	48.7947089016	-68.0552996199	0	)
(	48.3218061727	-68.297872823	0	)
(	47.8475874958	-68.5369121318	0	)
(	47.3720820942	-68.7724118906	0	)
(	46.8953191938	-69.0043667148	0	)
(	46.4173280202	-69.2327714909	0	)
(	45.9381377959	-69.4576213762	0	)
(	45.4577777372	-69.6789117978	0	)
(	44.9762770521	-69.8966384525	0	)
(	44.4936649367	-70.1107973061	0	)
(	44.0099705731	-70.3213845931	0	)
(	43.5252231264	-70.5283968157	0	)
(	43.0394517419	-70.7318307435	0	)
(	42.5526855424	-70.9316834128	0	)
(	42.0649536255	-71.1279521256	0	)
(	41.5762850611	-71.3206344495	0	)
(	41.0867088882	-71.5097282163	0	)
(	40.5962541128	-71.6952315217	0	)
(	40.1049497047	-71.8771427242	0	)
(	39.6128245953	-72.0554604446	0	)
(	39.1199076746	-72.2301835646	0	)
(	38.6262277887	-72.4013112266	0	)
(	38.1318137374	-72.5688428321	0	)
(	37.6366942709	-72.7327780414	0	)
(	37.1408980883	-72.8931167719	0	)
(	36.6444538338	-73.0498591979	0	)
(	36.1473900952	-73.2030057488	0	)
(	35.6497354006	-73.3525571085	0	)
(	35.1515182164	-73.4985142144	0	)
(	34.6527669443	-73.6408782558	0	)
(	34.1535099191	-73.7796506732	0	)
(	33.6537754063	-73.9148331569	0	)
(	33.1535915995	-74.0464276459	0	)
(	32.6529866176	-74.1744363268	0	)
(	32.1519885031	-74.298861632	0	)
(	31.6506252192	-74.4197062391	0	)
(	31.1489246473	-74.5369730693	0	)
(	30.6469145851	-74.6506652861	0	)
(	30.1446227437	-74.7607862937	0	)
(	29.6420767457	-74.8673397361	0	)
(	29.1393041227	-74.9703294953	0	)
(	28.6363323128	-75.06975969	0	)
(	28.1331886588	-75.1656346743	0	)
(	27.6299004055	-75.2579590358	0	)
(	27.1264946976	-75.3467375947	0	)
(	26.6229985775	-75.4319754016	0	)
(	26.1194389831	-75.5136777367	0	)
(	25.6158427457	-75.5918501073	0	)
(	25.1122365876	-75.6664982472	0	)
(	24.6086471203	-75.7376281143	0	)
(	24.1051008421	-75.8052458895	0	)
(	23.6016241361	-75.8693579744	0	)
(	23.0982432682	-75.9299709906	0	)
(	22.5949843849	-75.9870917768	0	)
(	22.0918735117	-76.0407273881	0	)
(	21.5889365503	-76.0908850937	0	)
(	21.0861992776	-76.1375723751	0	)
(	20.5836873428	-76.1807969248	0	)
(	20.0814262662	-76.2205666438	0	)
(	19.579441437	-76.2568896404	0	)
(	19.0777581114	-76.289774228	0	)
(	18.5764014107	-76.3192289233	0	)
(	18.0753963196	-76.3452624443	0	)
(	17.5747676845	-76.3678837089	0	)
(	17.0745402112	-76.3871018321	0	)
(	16.574738464	-76.4029261251	0	)
(	16.0753868631	-76.4153660923	0	)
(	15.5765096833	-76.4244314301	0	)
(	15.0781310526	-76.4301320247	0	)
(	14.5802749498	-76.4324779498	0	)
(	14.0829652036	-76.431479465	0	)
(	13.5862254907	-76.4271470135	0	)
(	13.0900793343	-76.4194912201	0	)
(	12.5945501022	-76.4085228891	0	)
(	12.0996610058	-76.3942530024	0	)
(	11.6054350985	-76.3766927172	0	)
(	11.1118952738	-76.3558533637	0	)
(	10.6190642645	-76.3317464436	0	)
(	10.1269646407	-76.3043836274	0	)
(	9.6356188089	-76.2737767523	0	)
(	9.1450490103	-76.2399378204	0	)
(	8.6552773196	-76.2028789961	0	)
(	8.1663256439	-76.1626126042	0	)
(	7.678215721	-76.1191511275	0	)
(	7.1909691184	-76.0725072046	0	)
(	6.7046072323	-76.0226936281	0	)
(	6.2191512861	-75.9697233415	0	)
(	5.7346223291	-75.913609438	0	)
(	5.2510412359	-75.8543651572	0	)
(	4.7684287048	-75.7920038839	0	)
(	4.2868052573	-75.7265391447	0	)
(	3.8061912361	-75.6579846068	0	)
(	3.3266068053	-75.586354075	0	)
(	2.8480719483	-75.5116614895	0	)
(	2.3706064676	-75.4339209239	0	)
(	1.8942299837	-75.3531465826	0	)
(	1.4189619339	-75.2693527986	0	)
(	0.9448215716	-75.1825540311	0	)
(	0.4718279659	-75.0927648633	0	)
(	1.37772764904077E-14	-75	0	)
(	-0.4706436289	-74.9042742651	0	)
(	-0.9400844109	-74.8056025995	0	)
(	-1.4083040235	-74.7040000585	0	)
(	-1.8752843328	-74.5994818099	0	)
(	-2.3410073941	-74.492063131	0	)
(	-2.8054554522	-74.3817594066	0	)
(	-3.2686109424	-74.2685861267	0	)
(	-3.7304564908	-74.1525588841	0	)
(	-4.1909749151	-74.0336933716	0	)
(	-4.6501492246	-73.9120053804	0	)
(	-5.1079626213	-73.787510797	0	)
(	-5.5643985001	-73.6602256011	0	)
(	-6.0194404492	-73.5301658636	0	)
(	-6.4730722503	-73.3973477434	0	)
(	-6.9252778794	-73.2617874858	0	)
(	-7.3760415067	-73.1235014197	0	)
(	-7.8253474974	-72.9825059554	0	)
(	-8.2731804114	-72.8388175819	0	)
(	-8.719525004	-72.6924528651	0	)
(	-9.1643662258	-72.5434284448	0	)
(	-9.6076892232	-72.391761033	0	)
(	-10.0494793382	-72.2374674109	0	)
(	-10.489722109	-72.0805644267	0	)
(	-10.9284032697	-71.9210689935	0	)
(	-11.3655087502	-71.7589980868	0	)
(	-11.8010246771	-71.594368742	0	)
(	-12.2349373727	-71.4271980523	0	)
(	-12.6672333555	-71.2575031659	0	)
(	-13.0978993405	-71.0853012843	0	)
(	-13.5269222381	-70.9106096595	0	)
(	-13.9542891551	-70.7334455918	0	)
(	-14.3799873938	-70.5538264275	0	)
(	-14.8040044524	-70.3717695566	0	)
(	-15.2263280243	-70.1872924102	0	)
(	-15.6469459982	-70.0004124587	0	)
(	-16.065846458	-69.8111472091	0	)
(	-16.4830176819	-69.619514203	0	)
(	-16.8984481429	-69.4255310139	0	)
(	-17.3121265079	-69.2292152455	0	)
(	-17.7240416377	-69.0305845289	0	)
(	-18.1341825863	-68.8296565206	0	)
(	-18.5425386007	-68.6264489002	0	)
(	-18.9490991205	-68.4209793684	0	)
(	-19.3538537773	-68.2132656442	0	)
(	-19.7567923942	-68.0033254634	0	)
(	-20.1579049856	-67.7911765758	0	)
(	-20.5571817561	-67.5768367433	0	)
(	-20.9546131005	-67.3603237375	0	)
(	-21.3501896028	-67.1416553381	0	)
(	-21.7439020359	-66.9208493299	0	)
(	-22.1357413607	-66.6979235013	0	)
(	-22.5256987254	-66.4728956419	0	)
(	-22.9137654651	-66.2457835403	0	)
(	-23.299933101	-66.0166049823	0	)
(	-23.6841933392	-65.7853777485	0	)
(	-24.0665380707	-65.5521196123	0	)
(	-24.4469593699	-65.316848338	0	)
(	-24.8254494942	-65.0795816785	0	)
(	-25.202000883	-64.8403373735	0	)
(	-25.576606157	-64.5991331472	0	)
(	-25.949258117	-64.3559867065	0	)
(	-26.3199497432	-64.1109157391	0	)
(	-26.6886741943	-63.8639379112	0	)
(	-27.0554248064	-63.6150708658	0	)
(	-27.4201950921	-63.3643322206	0	)
(	-27.7829787394	-63.1117395664	0	)
(	-28.143769611	-62.8573104646	0	)
(	-28.5025617426	-62.6010624459	0	)
(	-28.8593493427	-62.343013008	0	)
(	-29.2141267905	-62.0831796141	0	)
(	-29.5668886358	-61.8215796909	0	)
(	-29.917629597	-61.5582306265	0	)
(	-30.2663445606	-61.293149769	0	)
(	-30.6130285797	-61.0263544248	0	)
(	-30.9576768727	-60.7578618563	0	)
(	-31.3002848223	-60.4876892806	0	)
(	-31.6408479743	-60.2158538677	0	)
(	-31.9793620361	-59.9423727387	0	)
(	-32.3158228756	-59.667262964	0	)
(	-32.65022652	-59.390541562	0	)
(	-32.9825691541	-59.1122254973	0	)
(	-33.3128471195	-58.8323316788	0	)
(	-33.6410569127	-58.5508769584	0	)
(	-33.9671951843	-58.2678781294	0	)
(	-34.291258737	-57.983351925	0	)
(	-34.6132445249	-57.6973150163	0	)
(	-34.9331496512	-57.4097840113	0	)
(	-35.2509713678	-57.1207754535	0	)
(	-35.5667070729	-56.8303058196	0	)
(	-35.8803543102	-56.5383915192	0	)
(	-36.191910767	-56.2450488922	0	)
(	-36.5013742729	-55.9502942085	0	)