/*--------------------------------*- C++ -*----------------------------------*\
| =========                 |                                                 |
| \\      /  F ield         | OpenFOAM: The Open Source CFD Toolbox           |
|  \\    /   O peration     | Version:  2.3.intel                             |
|   \\  /    A nd           | Web:      www.OpenFOAM.org                      |
|    \\/     M anipulation  |                                                 |
\*---------------------------------------------------------------------------*/
FoamFile
{
    version     2.0;
    format      ascii;
    class       polyBoundaryMesh;
    location    "constant/polyMesh";
    object      boundary;
}
// * * * * * * * * * * * * * * * * * * * * * * * * * * * * * * * * * * * * * //

4
(
    parete
    {
        type            wall;
        inGroups        1(wall);
        nFaces          700;
        startFace       2938189;
    }
    outlet
    {
        type            patch;
        nFaces          474;
        startFace       2938889;
    }
    inlet
    {
        type            patch;
        nFaces          474;
        startFace       2939363;
    }
    frontAndBackPlanes
    {
        type            empty;
        inGroups        1(empty);
        nFaces          3918684;
        startFace       2939837;
    }
)

// ************************************************************************* //
