/*--------------------------------*- C++ -*----------------------------------*\
| =========                 |                                                 |
| \\      /  F ield         | OpenFOAM: The Open Source CFD Toolbox           |
|  \\    /   O peration     | Version:  2.2.2                                 |
|   \\  /    A nd           | Web:      www.OpenFOAM.org                      |
|    \\/     M anipulation  |                                                 |
\*---------------------------------------------------------------------------*/
FoamFile
{
    version     2.0;
    format      ascii;
    class       dictionary;
    location    "system";
    object      fvSolution;
}
// * * * * * * * * * * * * * * * * * * * * * * * * * * * * * * * * * * * * * //

solvers
{
    p
    {   
        solver          PCG;
        preconditioner  FDIC;
        tolerance       1e-05;
        relTol          0.01;
    }

    pFinal
    { 
        solver          PCG;
        preconditioner  FDIC;
        tolerance       1e-05;
        relTol          0.0;
    }

    U
    {
        solver          PBiCG;
        preconditioner  DILU;
        tolerance       1e-9;
        relTol          0;
    }

    UFinal
    {
        solver          PBiCG;
        preconditioner  DILU;
        tolerance       1e-9;
        relTol          0;
    }

    B
    {
        solver          PBiCG;
        preconditioner  DILU;
        tolerance       1e-05;
        relTol          0;
    }

    k 
    {
        solver          PBiCG;
        preconditioner  DILU;
        tolerance       1e-9;
        relTol          0;
    }
    kFinal
    {
        solver          PBiCG;
        preconditioner  DILU;
        tolerance       1e-9;
        relTol          0;
    }

    v2
    {
        solver          PBiCG;
        preconditioner  DILU;
        tolerance       1e-9;
        relTol          0;
    }
    v2Final
    {
        solver          PBiCG;
        preconditioner  DILU;
        tolerance       1e-9;
        relTol          0;
    }

    f
    {
        solver          PCG;
        preconditioner  FDIC;
        tolerance       1e-9;
        relTol          0.0;

    }   
    fFinal
    {
        solver          PCG;
        preconditioner  FDIC;
        tolerance       1e-9;
        relTol          0.0;
    }


    epsilon
    {
        solver          PBiCG;
        preconditioner  DILU;
        tolerance       1e-9;
        relTol          0;
    }   
    epsilonFinal
    {
        solver          PBiCG;
        preconditioner  DILU;
        tolerance       1e-9;
        relTol          0;
    }


}

PISO
{
    nOuterCorrectors 1;
    nCorrectors     1;
    nNonOrthogonalCorrectors 0;
    pRefCell        0;
    pRefValue       0;
}
PIMPLE
{
    nOuterCorrectors 1;
    nCorrectors     2;
    nNonOrthogonalCorrectors 0;
    pRefCell        0;
    pRefValue       0;
}


// ************************************************************************* //
