/*--------------------------------*- C++ -*----------------------------------*\
| =========                 |                                                 |
| \\      /  F ield         | OpenFOAM: The Open Source CFD Toolbox           |
|  \\    /   O peration     | Version:  2.3.1                                 |
|   \\  /    A nd           | Web:      www.OpenFOAM.org                      |
|    \\/     M anipulation  |                                                 |
\*---------------------------------------------------------------------------*/
FoamFile
{
    version     2.0;
    format      ascii;
    class       dictionary;
    object      blockMeshDict;
}

// * * * * * * * * * * * * * * * * * * * * * * * * * * * * * * * * * * * * * //

convertToMeters 1;

vertices
(
        (-200    2.0       -0.5)		//0
        (-0.5    2.0       -0.5)		//1
        (-0.5    200       -0.5)		//2
        (-200    200        -0.5)		//3
        (-200    2.0        0.5)		//4
        (-0.5    2.0        0.5)		//5
        (-0.5    200         0.5)		//6
        (-200    200         0.5)		//7
	(0.5     2.0       -0.5)		//8
	(0.5     200        -0.5)		//9
        (0.5     2.0        0.5)		//10
        (0.5     200         0.5)		//11
	(-200    1.0       -0.5)		//12
	(-0.5    1.0       -0.5)		//13
        (-200    1.0        0.5)		//14
        (-0.5    1.0        0.5)		//15
        (-200   -1.0      -0.5)		//16
        (-0.5    -1.0      -0.5)		//17
        (-200   -1.0       0.5)		//18
        (-0.5    -1.0       0.5)		//19
	(0.5     -1.0      -0.5)		//20
	(0.5     1.0       -0.5)		//21
        (0.5     -1.0       0.5)		//22
        (0.5     1.0        0.5)		//23
        (-200   -2.0      -0.5)                //24
        (-0.5    -2.0      -0.5)                //25
        (-200   -2.0       0.5)                //26
        (-0.5    -2.0       0.5)                //27
	(-200   -200       -0.5)                //28
	(-0.5    -200       -0.5)                //29
        (-200   -200        0.5)                //30
        (-0.5    -200        0.5)                //31
        (0.5     -200       -0.5)		//32
        (0.5     -2.0      -0.5)		//33
        (0.5     -200        0.5)		//34
        (0.5     -2.0       0.5)		//35
        (200     2.0       -0.5)                //36
        (200     200        -0.5)                //37
        (200     2.0        0.5)                //38
        (200     200         0.5)                //39
	(200     1.0       -0.5)		//40
	(200     1.0        0.5)		//41
	(200    -1.0      -0.5)		//42
	(200    -1.0       0.5)		//43
	(200    -2.0      -0.5)                //44
	(200    -2.0       0.5)		//45
	(200    -200       -0.5)                //46
        (200    -200        0.5)                //47
);

blocks
(
	hex (0 1 2 3 4 5 6 7)		      (934   934   1)	       edgeGrading (0.01 0.01 0.01 0.01 100 100 100 100 1 1 1 1)
	hex (1 8 9 2 5 10 11 6)               (100   934   1)          edgeGrading (1 1 1 1 100 100 100 100 1 1 1 1)
	hex (12 13 1 0 14 15 5 4)             (934   100   1)          edgeGrading (0.01 0.01 0.01 0.01 1 1 1 1 1 1 1 1)	
	hex (16 17 13 12 18 19 15 14)	      (934   200   1)          edgeGrading (0.01 0.01 0.01 0.01 1 1 1 1 1 1 1 1)
        hex (17 20 21 13 19 22 23 15)         (100   200   1)          edgeGrading (1 1 1 1 1 1 1 1 1 1 1 1)
	hex (24 25 17 16 26 27 19 18)         (934   100   1)          edgeGrading (0.01 0.01 0.01 0.01 1 1 1 1 1 1 1 1)
	hex (28 29 25 24 30 31 27 26)	      (934   934   1)	       edgeGrading (0.01 0.01 0.01 0.01 0.01 0.01 0.01 0.01 1 1 1 1)	
	hex (29 32 33 25 31 34 35 27)	      (100   934   1)	       edgeGrading (1 1 1 1 0.01 0.01 0.01 0.01 1 1 1 1)
	hex (8 36 37 9 10 38 39 11)	      (934   934   1)	       edgeGrading (100 100 100 100 100 100 100 100 1 1 1 1)
	hex (21 40 36 8 23 41 38 10)	      (934   100   1)          edgeGrading (100 100 100 100 1 1 1 1 1 1 1 1)
	hex (20 42 40 21 22 43 41 23)         (934   200   1)          edgeGrading (100 100 100 100 1 1 1 1 1 1 1 1)
	hex (33 44 42 20 35 45 43 22)	      (934   100   1)	       edgeGrading (100 100 100 100 1 1 1 1 1 1 1 1)	
	hex (32 46 44 33 34 47 45 35)	      (934   934   1)	       edgeGrading (100 100 100 100 0.01 0.01 0.01 0.01 1 1 1 1)		
);

edges
(
);

boundary
(
parete
        {
            type wall;    
            faces
            (
                (25 33 35 27)
		(33 20 22 35)
		(20 17 19 22)
		(17 25 27 19)
            );
        }                  

parete_1
        {
            type wall;
            faces
            (
                (13 21 23 15)
                (21 8 10 23)
                (8 1 5 10)
                (1 13 15 5)
            );
        }

outflow
        {
            type patch;
            faces
            (
                (46 44 45 47)
		(44 42 43 45)
		(42 40 41 43)
		(40 36 38 41)
		(36 37 39 38) 
            );
        }

inflow
        {
            type patch;
            faces
            (
                (28 24 26 30)
		(24 16 18 26)
		(16 12 14 18)
                (12 0 4 14)
                (0 3 7 4)
            );
        }

frontAndBackPlanes
        {
            type empty;
            faces
            (
                (0 1 2 3)
                (4 5 6 7)
		(12 13 1 0)
		(14 15 5 4)
		(16 17 13 12)
		(18 19 15 14)
		(24 25 17 16)
		(26 27 19 18)
		(28 29 25 24)
		(30 31 27 26)
		(1 8 9 2)
		(5 10 11 6)
		(17 20 21 13)
		(19 22 23 15)
		(29 32 33 25)
		(31 34 35 27)
		(8 36 37 9)
		(10 38 39 11)
		(21 40 36 8)
		(23 41 38 10)		
		(20 42 40 21)
		(22 43 41 23)
		(33 44 42 20)
		(35 45 43 22)
		(32 46 44 33)
		(34 47 45 35)
            );
        }
top
{
            type patch;
            faces
            (
		(3 2 6 7)
		(2 9 11 6)
		(9 37 39 11)
            );
        }
bottom
{
            type patch;
            faces
            (
		(28 29 31 30)
		(29 32 34 31)
		(32 46 47 34)
            );
        }

);

// ************************************************************************* //
