/*--------------------------------*- C++ -*----------------------------------*\
| =========                 |                                                 |
| \\      /  F ield         | OpenFOAM: The Open Source CFD Toolbox           |
|  \\    /   O peration     | Version:  2.2.2                                 |
|   \\  /    A nd           | Web:      www.OpenFOAM.org                      |
|    \\/     M anipulation  |                                                 |
\*---------------------------------------------------------------------------*/
FoamFile
{
    version     2.0;
    format      ascii;
    class       dictionary;
    note        "mesh renumbering dictionary";
    object      renumberMeshDict;
}
// * * * * * * * * * * * * * * * * * * * * * * * * * * * * * * * * * * * * * //

// Write maps from renumbered back to original mesh
writeMaps true;

// Optional entry: sort cells on coupled boundaries to last for use with
// e.g. nonBlockingGaussSeidel.
sortCoupledFaceCells false;

method CuthillMcKee;

neighbourData
{
	Range	10;
}
bfsdfsData
{
	Submesh 5;
}

CuthillMcKeeCoeffs
{
    // Reverse CuthillMcKee (RCM) or plain
    reverse true; 
}

manualCoeffs
{
    // In system directory: new-to-original (i.e. order) labelIOList
    dataFile "cellMap";
}


// For extruded (i.e. structured in one direction) meshes
structuredCoeffs
{
    // Patches that mesh was extruded from. These determine the starting
    // layer of cells
    patches (movingWall);
    // Method to renumber the starting layer of cells
    method CuthillMcKee;

    // Renumber in columns (depthFirst) or in layers
    depthFirst true;

    // Reverse ordering
    reverse false;
}


springCoeffs
{
    // Maximum jump of cell indices. Is fraction of number of cells
    maxCo 0.01;

    // Limit the amount of movement; the fraction maxCo gets decreased
    // with every iteration
    freezeFraction 0.999;

    // Maximum number of iterations
    maxIter 1000;
}


blockCoeffs
{
    method CuthillMcKee;
    //method CuthillMcKee;
    //hierarchicalCoeffs
    //{
    //    n           (1 2 1);
    //    delta       0.001;
    //    order       xyz;
    //}
}


zoltanCoeffs
{
    ORDER_METHOD    LOCAL_HSFC;
}


// ************************************************************************* //

